results/2026-03-17/bilevel_comparisons_single_period/solution_bus_motivation_c_min_max.csv
bus_id,vm_avg,z_voltage
1,1.0115019653991733,1.0
2,1.0115019773584981,1.0
3,1.0114362005275948,1.0
4,1.011641081119673,1.0
5,0.0,0.0
6,1.03,1.0
7,1.0118280326308395,1.0
8,1.013915821457909,1.0
9,1.013915821457909,1.0
10,1.013915821457909,1.0
11,1.0116706738150805,1.0
12,0.0,0.0
13,1.0115019653991733,1.0
14,1.0131811817100458,1.0
15,0.0,0.0
16,1.013915821457909,1.0
17,1.0118280326308395,1.0
18,1.0115019653991733,1.0
19,1.013915821457909,1.0
20,0.0,0.0
